.subckt inv in out vdd vss
M1 out in vdd vdd pmos W=2u L=150n
M2 out in vss vss nmos W=1000n L=0.15u
.ends inv
