.subckt top in out vdd vss
M1 out in vdd vdd pmos W=2u L=0.18u
M2 out in vss vss nmos W=2u L=0.18u
.ends
