.subckt top d g s b
M1 d g s b nmos W=2u L=0.36u
.ends
